******
** ngspice-31 : Circuit level simulation program
** The U. C. Berkeley CAD Group
** Copyright 1985-1994, Regents of the University of California.
** Please get your ngspice manual from http://ngspice.sourceforge.net/docs.html
** Please file your bug-reports at http://ngspice.sourceforge.net/bugrep.html
** Creation Date: Sun Oct 27 09:07:06 UTC 2019
******

Circuit: *voltage divider netlist

Doing analysis at TEMP = 27.000000 and TNOM = 27.000000


No. of Data Rows : 1
********************************************
Operating point
********************************************
op_TAB
@gib[i] = 0.000000e+00
@r1[i] = 0.000000e+00
@r2[i] = 0.000000e+00
@r3[i] = 0.000000e+00
@r4[i] = 0.000000e+00
@r5[i] = 2.858009e-03
@r6[i] = 0.000000e+00
@r7[i] = 0.000000e+00
hvc#branch = 2.858009e-03
v1 = 0.000000e+00
v2 = 0.000000e+00
v3 = 0.000000e+00
v5 = 0.000000e+00
v6 = 8.763669e+00
v7 = 0.000000e+00
v8 = 0.000000e+00
v9 = 0.000000e+00
vs#branch = 0.000000e+00
vvc#branch = 0.000000e+00
vx#branch = -2.85801e-03
v(v5,v2) = 0.000000e+00
v(v8,v5) = 0.000000e+00
op_END
********************************************
Given Values
********************************************
op_TAB1
R1 = 1.01949191994 KΩ
R2 = 2.05054429461 KΩ
R3 = 3.09286027724 KΩ
R4 = 4.12838973576 KΩ
R5 = 3.06635427647 KΩ
R6 = 2.01254230153 KΩ
R7 = 1.00502981701 KΩ
Va = 5.24204797361 V
C = 1.01905568201 F
Kb = 7.23185131759 mS
Kc = 8.12820254987 KΩ
op_END1
ngspice-31 done
