
Circuit: *-----------------------------------------------------------------------------

Reducing trtol to 1 for xspice 'A' devices
Doing analysis at TEMP = 27.000000 and TNOM = 27.000000


No. of Data Rows : 71
abs(v(vo)[20]/vout#branch[20]/(-1)) = 8.261942e+02
ngspice-31 done
